#======================================================================

# CRYSTAL DATA

#----------------------------------------------------------------------

data_VESTA_phase_1


_chemical_name_common                  ''
_cell_length_a                         4.13700
_cell_length_b                         4.13700
_cell_length_c                         28.56000
_cell_angle_alpha                      90
_cell_angle_beta                       90
_cell_angle_gamma                      120
_space_group_name_H-M_alt              'P 1'
_space_group_IT_number                 1

loop_
_space_group_symop_operation_xyz
   'x, y, z'

loop_
   _atom_site_label
   _atom_site_occupancy
   _atom_site_fract_x
   _atom_site_fract_y
   _atom_site_fract_z
   _atom_site_adp_type
   _atom_site_B_iso_or_equiv
   _atom_site_type_symbol
   Bi0        1.0     0.666670      0.333330      0.051470     Biso  1.000000 Bi
   Bi1        1.0     0.666670      0.333330      0.846150     Biso  1.000000 Bi
   Bi2        1.0     0.333330      0.666670      0.718140     Biso  1.000000 Bi
   Bi3        1.0     0.333330      0.666670      0.512820     Biso  1.000000 Bi
   Bi4        1.0     0.000000      0.000000      0.384810     Biso  1.000000 Bi
   Bi5        1.0     0.000000      0.000000      0.179490     Biso  1.000000 Bi
   Se6        1.0     0.333330      0.666670      0.115480     Biso  1.000000 Se
   Se7        1.0     0.000000      0.000000      0.000000     Biso  1.000000 Se
   Se8        1.0     0.333330      0.666670      0.897630     Biso  1.000000 Se
   Se9        1.0     0.000000      0.000000      0.782150     Biso  1.000000 Se
   Se10       1.0     0.666670      0.333330      0.666670     Biso  1.000000 Se
   Se11       1.0     0.000000      0.000000      0.564290     Biso  1.000000 Se
   Se12       1.0     0.666670      0.333330      0.448810     Biso  1.000000 Se
   Se13       1.0     0.333330      0.666670      0.333330     Biso  1.000000 Se
   Se14       1.0     0.666670      0.333330      0.230960     Biso  1.000000 Se
